Version 4
SHEET 1 1320 680
WIRE 720 -112 592 -112
WIRE 896 -112 720 -112
WIRE 592 -64 592 -112
WIRE 560 -48 432 -48
WIRE 720 -32 624 -32
WIRE 816 -32 720 -32
WIRE 976 -32 896 -32
WIRE 400 -16 400 -192
WIRE 560 -16 400 -16
WIRE -48 64 -176 64
WIRE 64 64 16 64
WIRE 144 64 64 64
WIRE 320 64 224 64
WIRE 432 64 432 -48
WIRE 432 64 320 64
WIRE 672 80 592 80
WIRE 672 112 672 80
WIRE 592 144 560 144
WIRE 768 144 592 144
WIRE 896 144 768 144
WIRE 64 176 64 144
WIRE 64 176 -176 176
WIRE 144 176 64 176
WIRE 320 176 320 128
WIRE 320 176 144 176
WIRE 592 192 592 144
WIRE 144 208 144 176
WIRE 432 208 432 64
WIRE 560 208 432 208
WIRE 768 224 624 224
WIRE 832 224 768 224
WIRE 976 224 912 224
WIRE 400 240 400 -16
WIRE 560 240 400 240
WIRE 592 288 592 256
WIRE 704 288 592 288
WIRE 592 320 592 288
FLAG 144 208 0
FLAG 560 144 +5V
IOPIN 560 144 In
FLAG 592 -112 +5V
IOPIN 592 -112 In
FLAG 672 112 0
FLAG 592 320 -5V
IOPIN 592 320 In
FLAG 592 0 -5V
IOPIN 592 0 In
FLAG 704 352 0
SYMBOL cap 16 48 R90
WINDOW 0 0 32 VBottom 2
WINDOW 3 32 32 VTop 2
SYMATTR InstName C1
SYMATTR Value 10µ
SYMBOL cap 336 128 R180
WINDOW 0 54 56 Right 2
WINDOW 3 39 -6 Top 2
SYMATTR InstName C2
SYMATTR Value 1n
SYMBOL res 48 48 R0
SYMATTR InstName R1
SYMATTR Value 330k
SYMBOL res 240 48 R90
WINDOW 0 0 56 VBottom 2
WINDOW 3 32 56 VTop 2
SYMATTR InstName R2
SYMATTR Value 2200
SYMBOL Comparators\\LT1018 592 -32 R0
SYMATTR InstName U1
SYMBOL Comparators\\LT1018 592 224 R0
SYMATTR InstName U2
SYMBOL res 704 -128 R0
SYMATTR InstName R3
SYMATTR Value 1000
SYMBOL res 912 -48 R90
WINDOW 0 0 56 VBottom 2
WINDOW 3 32 56 VTop 2
SYMATTR InstName R4
SYMATTR Value 1000
SYMBOL res 992 -128 R90
WINDOW 0 0 56 VBottom 2
WINDOW 3 32 56 VTop 2
SYMATTR InstName R5
SYMATTR Value 10000
SYMBOL cap 576 80 R0
SYMATTR InstName C3
SYMATTR Value 100n
SYMBOL res 752 128 R0
SYMATTR InstName R6
SYMATTR Value 1000
SYMBOL res 992 128 R90
WINDOW 0 0 56 VBottom 2
WINDOW 3 32 56 VTop 2
SYMATTR InstName R7
SYMATTR Value 10000
SYMBOL res 928 208 R90
WINDOW 0 0 56 VBottom 2
WINDOW 3 32 56 VTop 2
SYMATTR InstName R8
SYMATTR Value 1000
SYMBOL cap 688 288 R0
SYMATTR InstName C4
SYMATTR Value 100n
SYMBOL AutoGenerated\\LM339 1216 -32 R0
WINDOW 3 0 56 Top 2
SYMATTR InstName U3
SYMBOL AutoGenerated\\LM339 1232 208 R0
WINDOW 3 0 56 Top 2
SYMATTR InstName U4
