Version 4
SHEET 1 3556 1000
WIRE 816 -2400 688 -2400
WIRE 688 -2352 688 -2400
WIRE 816 -2320 816 -2400
WIRE 448 -2224 400 -2224
WIRE 688 -2224 688 -2272
WIRE 688 -2224 560 -2224
WIRE 560 -2160 560 -2224
WIRE -544 -2144 -1104 -2144
WIRE 368 -2128 16 -2128
WIRE -1104 -2112 -1104 -2144
WIRE 400 -2080 400 -2224
WIRE 400 -2080 336 -2080
WIRE 512 -2080 480 -2080
WIRE -736 -1936 -768 -1936
WIRE -544 -1936 -544 -2144
WIRE -144 -1936 -544 -1936
WIRE 368 -1920 368 -2128
WIRE 560 -1920 560 -2064
WIRE 560 -1920 368 -1920
WIRE 624 -1920 560 -1920
WIRE 816 -1920 704 -1920
WIRE 944 -1920 816 -1920
WIRE 992 -1920 944 -1920
WIRE -768 -1904 -768 -1936
WIRE -768 -1904 -864 -1904
WIRE 816 -1872 816 -1920
WIRE 944 -1872 944 -1920
WIRE -864 -1856 -864 -1904
WIRE -384 -1856 -416 -1856
WIRE 16 -1856 16 -2128
WIRE -864 -1840 -864 -1856
WIRE -416 -1824 -416 -1856
WIRE -416 -1824 -480 -1824
WIRE -208 -1824 -416 -1824
WIRE 432 -1824 368 -1824
WIRE 560 -1792 560 -1920
WIRE -480 -1776 -480 -1824
WIRE -144 -1760 -144 -1936
WIRE -128 -1760 -144 -1760
WIRE -48 -1760 -48 -1856
WIRE -48 -1760 -64 -1760
WIRE 816 -1760 816 -1808
WIRE 944 -1760 944 -1792
WIRE 368 -1712 368 -1824
WIRE 400 -1712 368 -1712
WIRE 512 -1712 480 -1712
WIRE -1104 -1552 -1104 -2032
WIRE -864 -1552 -864 -1776
WIRE -864 -1552 -1104 -1552
WIRE -480 -1552 -480 -1696
WIRE -480 -1552 -864 -1552
WIRE -80 -1552 -480 -1552
WIRE 128 -1552 -80 -1552
WIRE 560 -1552 560 -1696
WIRE 560 -1552 128 -1552
WIRE -208 -1456 -208 -1824
WIRE -208 -1456 -544 -1456
WIRE -80 -1456 -80 -1552
WIRE -768 -1408 -768 -1904
WIRE -192 -1408 -768 -1408
WIRE -192 -1360 -192 -1408
WIRE -192 -1360 -320 -1360
WIRE -448 -1344 -704 -1344
WIRE -144 -1328 -144 -1760
WIRE -144 -1328 -320 -1328
WIRE -448 -1312 -624 -1312
WIRE -48 -1296 -48 -1760
WIRE -48 -1296 -320 -1296
WIRE -448 -1280 -512 -1280
WIRE 16 -1264 16 -1856
WIRE 16 -1264 -320 -1264
WIRE -544 -1216 -544 -1456
WIRE -448 -1216 -544 -1216
WIRE -512 -1056 -512 -1280
WIRE 128 -1056 128 -1552
WIRE 128 -1056 -512 -1056
WIRE -624 -992 -624 -1312
WIRE 336 -992 336 -2080
WIRE 336 -992 -624 -992
WIRE -704 -896 -704 -1344
WIRE 368 -896 368 -1712
WIRE 368 -896 -704 -896
FLAG -80 -1456 0
FLAG 816 -2320 0
FLAG 944 -1760 0
FLAG 816 -1760 0
FLAG 992 -1920 Load
IOPIN 992 -1920 Out
FLAG 448 -2224 HIGH
IOPIN 448 -2224 Out
FLAG 432 -1824 LOW
IOPIN 432 -1824 Out
FLAG -736 -1936 HIGH_IN
IOPIN -736 -1936 Out
FLAG -384 -1856 LOW_IN
IOPIN -384 -1856 Out
SYMBOL res 496 -2096 R90
WINDOW 0 0 56 VBottom 2
WINDOW 3 32 56 VTop 2
SYMATTR InstName R4
SYMATTR Value 4.7
SYMBOL res 496 -1728 R90
WINDOW 0 0 56 VBottom 2
WINDOW 3 32 56 VTop 2
SYMATTR InstName R5
SYMATTR Value 4.7
SYMBOL voltage -1104 -2128 R0
WINDOW 3 -49 10 Left 2
WINDOW 123 0 0 Left 0
WINDOW 39 0 0 Left 0
SYMATTR Value 14
SYMATTR InstName V4
SYMBOL voltage -864 -1872 R0
WINDOW 3 -230 126 Left 2
WINDOW 123 0 0 Left 0
WINDOW 39 0 0 Left 0
SYMATTR Value PULSE(0 5 104u 100n 100n 98.4u 200u)
SYMATTR InstName V5
SYMBOL voltage -480 -1792 R0
WINDOW 3 -217 119 Left 2
WINDOW 123 0 0 Left 0
WINDOW 39 0 0 Left 0
SYMATTR Value PULSE(0 5 4u 100n 100n 98.4u 200u)
SYMATTR InstName V6
SYMBOL diode -128 -1744 R270
WINDOW 0 32 32 VTop 2
WINDOW 3 -10 32 VBottom 2
SYMATTR InstName D2
SYMATTR Value 1N914
SYMBOL voltage 688 -2256 R180
WINDOW 123 0 0 Left 0
WINDOW 39 0 0 Left 0
SYMATTR InstName V7
SYMATTR Value 14
SYMBOL nmos 512 -1792 R0
SYMATTR InstName M3
SYMATTR Value IRF510
SYMBOL nmos 512 -2160 R0
SYMATTR InstName M4
SYMATTR Value IRF510
SYMBOL res 960 -1776 R180
WINDOW 0 36 76 Left 2
WINDOW 3 36 40 Left 2
SYMATTR InstName R6
SYMATTR Value 4
SYMBOL ind 608 -1904 R270
WINDOW 0 32 56 VTop 2
WINDOW 3 5 56 VBottom 2
SYMATTR InstName L2
SYMATTR Value 500µ
SYMBOL cap 800 -1872 R0
SYMATTR InstName C3
SYMATTR Value 60µ
SYMBOL cap 16 -1872 R90
WINDOW 0 0 32 VBottom 2
WINDOW 3 32 32 VTop 2
SYMATTR InstName C4
SYMATTR Value 270n
SYMBOL AutoGenerated\\IR2113 -384 -1280 R0
SYMATTR InstName U2
TEXT -1112 -1504 Left 2 !.tran 0 5ms 0 .5ms
