Version 4
SHEET 1 3556 1000
WIRE 320 -816 288 -816
WIRE 512 -752 512 -816
WIRE 288 -672 288 -816
WIRE 352 -672 288 -672
WIRE 464 -672 432 -672
WIRE 512 -512 512 -656
WIRE 512 -512 -32 -512
WIRE 576 -512 512 -512
WIRE 768 -512 656 -512
WIRE 896 -512 768 -512
WIRE 944 -512 896 -512
WIRE -944 -496 -1040 -496
WIRE -624 -496 -720 -496
WIRE -1040 -464 -1040 -496
WIRE -720 -464 -720 -496
WIRE 768 -464 768 -512
WIRE 896 -464 896 -512
WIRE 384 -416 320 -416
WIRE 512 -384 512 -512
WIRE 768 -352 768 -400
WIRE 896 -352 896 -384
WIRE 320 -304 320 -416
WIRE 352 -304 320 -304
WIRE 464 -304 432 -304
WIRE 512 -144 512 -288
WIRE -288 -64 -304 -64
WIRE -304 16 -304 -64
WIRE -304 16 -352 16
WIRE -240 16 -304 16
WIRE -32 32 -32 -512
WIRE -320 48 -368 48
WIRE -784 64 -816 64
WIRE -272 80 -368 80
WIRE -240 80 -240 16
WIRE -192 80 -240 80
WIRE -96 80 -96 32
WIRE -96 80 -128 80
WIRE -816 96 -816 64
WIRE -816 96 -912 96
WIRE -496 96 -816 96
WIRE -288 112 -368 112
WIRE -272 112 -272 80
WIRE -96 112 -96 80
WIRE -96 112 -272 112
WIRE -912 144 -912 96
WIRE -352 144 -352 16
WIRE -352 144 -368 144
WIRE -288 144 -288 112
WIRE -32 144 -32 32
WIRE -32 144 -288 144
WIRE -912 160 -912 144
WIRE -496 160 -592 160
WIRE -336 176 -368 176
WIRE -336 192 -336 176
WIRE -352 208 -368 208
WIRE -592 368 -592 160
WIRE -560 368 -592 368
WIRE -592 400 -592 368
WIRE -592 400 -656 400
WIRE -320 416 -320 48
WIRE 288 416 288 -672
WIRE 288 416 -320 416
WIRE -656 448 -656 400
WIRE -352 512 -352 208
WIRE 320 512 320 -304
WIRE 320 512 -352 512
FLAG 896 -352 0
FLAG 768 -352 0
FLAG 944 -512 Load
IOPIN 944 -512 Out
FLAG 320 -816 HIGH
IOPIN 320 -816 Out
FLAG 384 -416 LOW
IOPIN 384 -416 Out
FLAG -784 64 HIGH_IN
IOPIN -784 64 Out
FLAG -560 368 LOW_IN
IOPIN -560 368 Out
FLAG -336 192 0
FLAG -1040 -384 0
FLAG -912 224 0
FLAG -656 528 0
FLAG 512 -144 0
FLAG -496 128 0
FLAG -944 -496 12v
IOPIN -944 -496 Out
FLAG -288 -64 12v
IOPIN -288 -64 Out
FLAG 512 -816 12v
IOPIN 512 -816 Out
FLAG -496 192 0
FLAG -720 -384 0
FLAG -624 -496 5v
IOPIN -624 -496 Out
SYMBOL res 448 -688 R90
WINDOW 0 0 56 VBottom 2
WINDOW 3 32 56 VTop 2
SYMATTR InstName R1
SYMATTR Value 12
SYMBOL res 448 -320 R90
WINDOW 0 0 56 VBottom 2
WINDOW 3 32 56 VTop 2
SYMATTR InstName R2
SYMATTR Value 12
SYMBOL voltage -1040 -480 R0
WINDOW 3 -49 10 Left 2
WINDOW 123 0 0 Left 0
WINDOW 39 0 0 Left 0
SYMATTR Value 12
SYMATTR InstName V1
SYMBOL voltage -912 128 R0
WINDOW 3 -542 42 Left 2
WINDOW 123 0 0 Left 0
WINDOW 39 0 0 Left 0
SYMATTR Value PULSE(1 5 104u 100n 100n 98.4u 200u)
SYMATTR InstName V2
SYMBOL voltage -656 432 R0
WINDOW 3 -217 119 Left 2
WINDOW 123 0 0 Left 0
WINDOW 39 0 0 Left 0
SYMATTR Value PULSE(1 5 4u 100n 100n 98.4u 200u)
SYMATTR InstName V3
SYMBOL diode -192 96 R270
WINDOW 0 32 32 VTop 2
WINDOW 3 -10 32 VBottom 2
SYMATTR InstName D1
SYMATTR Value 1N914
SYMBOL nmos 464 -384 R0
SYMATTR InstName M1
SYMATTR Value IRF510
SYMBOL nmos 464 -752 R0
SYMATTR InstName M2
SYMATTR Value IRF510
SYMBOL res 912 -368 R180
WINDOW 0 36 76 Left 2
WINDOW 3 36 40 Left 2
SYMATTR InstName R3
SYMATTR Value 4
SYMATTR SpiceLine pwr=20
SYMBOL ind 560 -496 R270
WINDOW 0 32 56 VTop 2
WINDOW 3 5 56 VBottom 2
SYMATTR InstName L1
SYMATTR Value 36µ
SYMBOL cap 752 -464 R0
SYMATTR InstName C1
SYMATTR Value 1µ
SYMBOL cap -32 16 R90
WINDOW 0 0 32 VBottom 2
WINDOW 3 32 32 VTop 2
SYMATTR InstName C2
SYMATTR Value 270n
SYMBOL AutoGenerated\\IR2113 -432 128 R0
SYMATTR InstName U3
SYMBOL voltage -720 -480 R0
WINDOW 3 -49 10 Left 2
WINDOW 123 0 0 Left 0
WINDOW 39 0 0 Left 0
SYMATTR Value 12
SYMATTR InstName V4
TEXT -600 -664 Left 2 !.tran 0 5ms 0 .5ms
